   25 
Mol 
N     -8.1722    -2.5853    15.5036 
C     -7.3235    -2.9288    16.4553 
N     -6.9756    -2.0122    17.4036 
N     -6.7816    -4.1463    16.5340 
C     -7.1434    -5.0333    15.5874 
N     -6.5399    -6.2716    15.6657 
C     -8.0339    -4.7406    14.5489 
N     -8.3988    -5.6365    13.5936 
C     -9.2731    -5.2309    12.6368 
C     -9.6510    -6.2429    11.5962 
C     -9.7844    -3.9336    12.6374 
C    -10.7519    -3.4616    11.5914 
N     -9.4270    -3.0303    13.5932 
C     -8.5505    -3.4373    14.5480 
H     -8.5635    -1.6562    15.4710 
H     -7.2940    -1.0600    17.4772 
H     -6.3165    -2.3447    18.1027 
H     -5.9029    -6.4642    16.4265 
H     -6.8911    -7.0359    15.0983 
H    -10.7287    -6.4310    11.6198 
H     -9.1400    -7.1942    11.7780 
H     -9.3634    -5.8925    10.6003 
H    -11.0322    -2.4178    11.7673 
H    -11.6656    -4.0632    11.6167 
H    -10.3003    -3.5248    10.5968 

