11
Mol CCC
C      1.22330000      -0.14360000      -0.35550000        6 
C      0.03110000      -0.17690000       0.59580000        6 
C     -1.24710000       0.27920000      -0.10100000        6 
H      1.39080000       0.88950000      -0.72810000        1 
H      2.13570000      -0.48020000       0.18040000        1 
H      1.04760000      -0.82110000      -1.21820000        1 
H     -0.10720000      -1.21270000       0.97440000        1 
H      0.23430000       0.48910000       1.46200000        1 
H     -2.09410000       0.24370000       0.61610000        1 
H     -1.47880000      -0.38880000      -0.95800000        1 
H     -1.13560000       1.32190000      -0.46790000        1 
